recall.rec: written by SWAT+ editor v1.3.0 on 2021-02-03 12:56
      id  name               rec_typ  file              
       1  pt03                     4  pt03              
       2  pt05                     4  pt05              
       3  pt07                     4  pt07              
       4  pt09                     4  pt09              
       5  pt11                     4  pt11              
       6  pt13                     4  pt13              
       7  pt15                     4  pt15              
       8  pt17                     4  pt17              
       9  pt18                     4  pt18              
      10  pt20                     4  pt20              
      11  pt22                     4  pt22              
