recall.rec: written by SWAT+ editor v1.2.3 on 2020-07-08 09:06
      id  name               rec_typ  file              
       1  pt002                    4  pt002             
       2  pt004                    4  pt004             
       3  pt006                    4  pt006             
       4  pt008                    4  pt008             
       5  pt010                    4  pt010             
       6  pt012                    4  pt012             
       7  pt014                    4  pt014             
       8  pt016                    4  pt016             
       9  pt018                    4  pt018             
      10  pt020                    4  pt020             
      11  pt022                    4  pt022             
      12  pt024                    4  pt024             
      13  pt026                    4  pt026             
      14  pt028                    4  pt028             
      15  pt030                    4  pt030             
      16  pt032                    4  pt032             
      17  pt034                    4  pt034             
      18  pt036                    4  pt036             
      19  pt038                    4  pt038             
      20  pt040                    4  pt040             
      21  pt042                    4  pt042             
      22  pt044                    4  pt044             
      23  pt046                    4  pt046             
      24  pt048                    4  pt048             
      25  pt050                    4  pt050             
      26  pt052                    4  pt052             
      27  pt054                    4  pt054             
      28  pt056                    4  pt056             
      29  pt058                    4  pt058             
      30  pt060                    4  pt060             
      31  pt062                    4  pt062             
      32  pt064                    4  pt064             
      33  pt066                    4  pt066             
      34  pt068                    4  pt068             
      35  pt070                    4  pt070             
      36  pt072                    4  pt072             
      37  pt074                    4  pt074             
      38  pt076                    4  pt076             
      39  pt078                    4  pt078             
      40  pt080                    4  pt080             
      41  pt082                    4  pt082             
      42  pt084                    4  pt084             
      43  pt086                    4  pt086             
      44  pt088                    4  pt088             
      45  pt090                    4  pt090             
      46  pt092                    4  pt092             
      47  pt094                    4  pt094             
      48  pt096                    4  pt096             
      49  pt098                    4  pt098             
      50  pt100                    4  pt100             
      51  pt102                    4  pt102             
      52  pt104                    4  pt104             
      53  pt106                    4  pt106             
      54  pt108                    4  pt108             
      55  pt110                    4  pt110             
      56  pt112                    4  pt112             
      57  pt114                    4  pt114             
      58  pt116                    4  pt116             
      59  pt118                    4  pt118             
      60  pt120                    4  pt120             
      61  pt122                    4  pt122             
      62  pt124                    4  pt124             
      63  pt126                    4  pt126             
      64  pt128                    4  pt128             
      65  pt130                    4  pt130             
      66  pt132                    4  pt132             
      67  pt134                    4  pt134             
      68  pt136                    4  pt136             
      69  pt138                    4  pt138             
      70  pt140                    4  pt140             
      71  pt142                    4  pt142             
      72  pt144                    4  pt144             
      73  pt146                    4  pt146             
      74  pt148                    4  pt148             
      75  pt150                    4  pt150             
      76  pt152                    4  pt152             
      77  pt154                    4  pt154             
      78  pt156                    4  pt156             
      79  pt158                    4  pt158             
      80  pt160                    4  pt160             
      81  pt162                    4  pt162             
      82  pt164                    4  pt164             
      83  pt166                    4  pt166             
      84  pt168                    4  pt168             
      85  pt170                    4  pt170             
      86  pt172                    4  pt172             
      87  pt174                    4  pt174             
      88  pt176                    4  pt176             
      89  pt178                    4  pt178             
      90  pt180                    4  pt180             
      91  pt182                    4  pt182             
